     4 
Profile.   1 HEAT OF FORMATION =    -0.376 KCAL
    N       -0.00000        0.00000       -0.00150
    H        0.96291       -0.00000        0.00757
    H       -0.48146        0.83391        0.00757
    H       -0.48146       -0.83391        0.00757
     4 
Profile.   2 HEAT OF FORMATION =    -0.419 KCAL
    N       -0.00000        0.00000       -0.00429
    H        0.96287       -0.00000        0.02047
    H       -0.48143        0.83387        0.02047
    H       -0.48143       -0.83387        0.02047
     4 
Profile.   3 HEAT OF FORMATION =    -0.518 KCAL
    N       -0.00000        0.00000       -0.00711
    H        0.96352       -0.00000        0.03351
    H       -0.48176        0.83443        0.03352
    H       -0.48176       -0.83443        0.03352
     4 
Profile.   4 HEAT OF FORMATION =    -0.665 KCAL
    N       -0.00000        0.00000       -0.00998
    H        0.96480       -0.00000        0.04679
    H       -0.48240        0.83554        0.04679
    H       -0.48240       -0.83554        0.04679
     4 
Profile.   5 HEAT OF FORMATION =    -0.852 KCAL
    N       -0.00000        0.00000       -0.01292
    H        0.96658       -0.00000        0.06037
    H       -0.48329        0.83708        0.06038
    H       -0.48329       -0.83708        0.06038
     4 
Profile.   6 HEAT OF FORMATION =    -1.068 KCAL
    N       -0.00000        0.00000       -0.01594
    H        0.96865       -0.00000        0.07434
    H       -0.48432        0.83887        0.07434
    H       -0.48432       -0.83887        0.07434
     4 
Profile.   7 HEAT OF FORMATION =    -1.304 KCAL
    N       -0.00000        0.00000       -0.01905
    H        0.97080       -0.00000        0.08875
    H       -0.48540        0.84074        0.08876
    H       -0.48540       -0.84074        0.08876
     4 
Profile.   8 HEAT OF FORMATION =    -1.556 KCAL
    N       -0.00000        0.00000       -0.02227
    H        0.97279       -0.00000        0.10366
    H       -0.48640        0.84246        0.10366
    H       -0.48640       -0.84246        0.10366
     4 
Profile.   9 HEAT OF FORMATION =    -1.823 KCAL
    N       -0.00000        0.00000       -0.02560
    H        0.97438       -0.00000        0.11909
    H       -0.48719        0.84384        0.11909
    H       -0.48719       -0.84384        0.11909
     4 
Profile.  10 HEAT OF FORMATION =    -2.108 KCAL
    N       -0.00000        0.00000       -0.02905
    H        0.97534       -0.00000        0.13506
    H       -0.48767        0.84467        0.13506
    H       -0.48767       -0.84467        0.13506
     4 
Profile.  11 HEAT OF FORMATION =    -2.414 KCAL
    N       -0.00000        0.00000       -0.03262
    H        0.97547       -0.00000        0.15157
    H       -0.48774        0.84478        0.15157
    H       -0.48774       -0.84478        0.15157
     4 
Profile.  12 HEAT OF FORMATION =    -2.740 KCAL
    N       -0.00000        0.00000       -0.03630
    H        0.97462       -0.00000        0.16860
    H       -0.48731        0.84404        0.16860
    H       -0.48731       -0.84404        0.16860
     4 
Profile.  13 HEAT OF FORMATION =    -3.077 KCAL
    N       -0.00000        0.00000       -0.04008
    H        0.97268       -0.00000        0.18610
    H       -0.48634        0.84236        0.18610
    H       -0.48634       -0.84236        0.18610
     4 
Profile.  14 HEAT OF FORMATION =    -3.412 KCAL
    N       -0.00000        0.00000       -0.04395
    H        0.96960       -0.00000        0.20402
    H       -0.48480        0.83970        0.20402
    H       -0.48480       -0.83970        0.20402
     4 
Profile.  15 HEAT OF FORMATION =    -3.720 KCAL
    N       -0.00000        0.00000       -0.04789
    H        0.96540       -0.00000        0.22226
    H       -0.48270        0.83606        0.22226
    H       -0.48270       -0.83606        0.22226
     4 
Profile.  16 HEAT OF FORMATION =    -3.971 KCAL
    N       -0.00000        0.00000       -0.05187
    H        0.96015       -0.00000        0.24071
    H       -0.48007        0.83151        0.24071
    H       -0.48007       -0.83151        0.24071
     4 
Profile.  17 HEAT OF FORMATION =    -4.130 KCAL
    N       -0.00000        0.00000       -0.05588
    H        0.95395       -0.00000        0.25925
    H       -0.47698        0.82615        0.25925
    H       -0.47698       -0.82615        0.25925
     4 
Profile.  18 HEAT OF FORMATION =    -4.162 KCAL
    N       -0.00000        0.00000       -0.05986
    H        0.94699       -0.00000        0.27771
    H       -0.47350        0.82012        0.27772
    H       -0.47350       -0.82012        0.27772
     4 
Profile.  19 HEAT OF FORMATION =    -4.042 KCAL
    N       -0.00000        0.00000       -0.06380
    H        0.93947       -0.00000        0.29593
    H       -0.46974        0.81361        0.29593
    H       -0.46974       -0.81361        0.29593
     4 
Profile.  20 HEAT OF FORMATION =    -3.752 KCAL
    N       -0.00000        0.00000       -0.06764
    H        0.93163       -0.00000        0.31371
    H       -0.46581        0.80681        0.31371
    H       -0.46581       -0.80681        0.31371
     4 
Profile.  21 HEAT OF FORMATION =    -3.289 KCAL
    N       -0.00000        0.00000       -0.07134
    H        0.92371       -0.00000        0.33085
    H       -0.46185        0.79996        0.33085
    H       -0.46185       -0.79996        0.33085
     4 
Profile.  22 HEAT OF FORMATION =    -2.669 KCAL
    N       -0.00000        0.00000       -0.07485
    H        0.91598       -0.00000        0.34713
    H       -0.45799        0.79326        0.34713
    H       -0.45799       -0.79326        0.34713
     4 
Profile.  23 HEAT OF FORMATION =    -1.921 KCAL
    N       -0.00000        0.00000       -0.07814
    H        0.90868       -0.00000        0.36234
    H       -0.45434        0.78694        0.36235
    H       -0.45434       -0.78694        0.36235
     4 
Profile.  24 HEAT OF FORMATION =    -1.090 KCAL
    N       -0.00000        0.00000       -0.08114
    H        0.90205       -0.00000        0.37626
    H       -0.45102        0.78120        0.37627
    H       -0.45102       -0.78120        0.37627
     4 
Profile.  25 HEAT OF FORMATION =    -0.233 KCAL
    N       -0.00000        0.00000       -0.08383
    H        0.89629       -0.00000        0.38869
    H       -0.44815        0.77621        0.38869
    H       -0.44815       -0.77621        0.38869
     4 
Profile.  26 HEAT OF FORMATION =     0.591 KCAL
    N       -0.00000        0.00000       -0.08614
    H        0.89158       -0.00000        0.39942
    H       -0.44579        0.77213        0.39942
    H       -0.44579       -0.77213        0.39942
     4 
Profile.  27 HEAT OF FORMATION =     1.324 KCAL
    N       -0.00000        0.00000       -0.08806
    H        0.88802       -0.00000        0.40827
    H       -0.44401        0.76905        0.40827
    H       -0.44401       -0.76905        0.40827
     4 
Profile.  28 HEAT OF FORMATION =     1.911 KCAL
    N       -0.00000        0.00000       -0.08953
    H        0.88570       -0.00000        0.41509
    H       -0.44285        0.76704        0.41509
    H       -0.44285       -0.76704        0.41509
     4 
Profile.  29 HEAT OF FORMATION =     2.312 KCAL
    N       -0.00000        0.00000       -0.09054
    H        0.88466       -0.00000        0.41975
    H       -0.44233        0.76613        0.41975
    H       -0.44233       -0.76613        0.41975
     4 
Profile.  30 HEAT OF FORMATION =     2.498 KCAL
    N       -0.00000        0.00000       -0.09106
    H        0.88486       -0.00000        0.42214
    H       -0.44243        0.76631        0.42214
    H       -0.44243       -0.76631        0.42214
     4 
Profile.  31 HEAT OF FORMATION =     2.458 KCAL
    N       -0.00000        0.00000       -0.09107
    H        0.88625       -0.00000        0.42221
    H       -0.44313        0.76752        0.42221
    H       -0.44313       -0.76752        0.42221
     4 
Profile.  32 HEAT OF FORMATION =     2.196 KCAL
    N       -0.00000        0.00000       -0.09058
    H        0.88873       -0.00000        0.41992
    H       -0.44437        0.76966        0.41992
    H       -0.44437       -0.76966        0.41992
     4 
Profile.  33 HEAT OF FORMATION =     1.733 KCAL
    N       -0.00000        0.00000       -0.08959
    H        0.89218       -0.00000        0.41530
    H       -0.44609        0.77265        0.41531
    H       -0.44609       -0.77265        0.41531
     4 
Profile.  34 HEAT OF FORMATION =     1.104 KCAL
    N       -0.00000        0.00000       -0.08811
    H        0.89645       -0.00000        0.40842
    H       -0.44822        0.77634        0.40842
    H       -0.44822       -0.77634        0.40842
     4 
Profile.  35 HEAT OF FORMATION =     0.354 KCAL
    N       -0.00000        0.00000       -0.08616
    H        0.90137       -0.00000        0.39936
    H       -0.45069        0.78061        0.39937
    H       -0.45069       -0.78061        0.39937
     4 
Profile.  36 HEAT OF FORMATION =    -0.465 KCAL
    N       -0.00000        0.00000       -0.08377
    H        0.90680       -0.00000        0.38829
    H       -0.45340        0.78531        0.38829
    H       -0.45340       -0.78531        0.38829
     4 
Profile.  37 HEAT OF FORMATION =    -1.297 KCAL
    N       -0.00000        0.00000       -0.08098
    H        0.91255       -0.00000        0.37536
    H       -0.45628        0.79029        0.37536
    H       -0.45628       -0.79029        0.37536
     4 
Profile.  38 HEAT OF FORMATION =    -2.090 KCAL
    N       -0.00000        0.00000       -0.07784
    H        0.91848       -0.00000        0.36080
    H       -0.45924        0.79543        0.36081
    H       -0.45924       -0.79543        0.36081
     4 
Profile.  39 HEAT OF FORMATION =    -2.797 KCAL
    N       -0.00000        0.00000       -0.07440
    H        0.92444       -0.00000        0.34485
    H       -0.46222        0.80059        0.34485
    H       -0.46222       -0.80059        0.34485
     4 
Profile.  40 HEAT OF FORMATION =    -3.380 KCAL
    N       -0.00000        0.00000       -0.07072
    H        0.93030       -0.00000        0.32775
    H       -0.46515        0.80566        0.32775
    H       -0.46515       -0.80566        0.32775
     4 
Profile.  41 HEAT OF FORMATION =    -3.815 KCAL
    N       -0.00000        0.00000       -0.06684
    H        0.93595       -0.00000        0.30976
    H       -0.46797        0.81056        0.30976
    H       -0.46797       -0.81056        0.30976
     4 
Profile.  42 HEAT OF FORMATION =    -4.092 KCAL
    N       -0.00000        0.00000       -0.06282
    H        0.94129       -0.00000        0.29114
    H       -0.47065        0.81518        0.29115
    H       -0.47065       -0.81518        0.29115
     4 
Profile.  43 HEAT OF FORMATION =    -4.212 KCAL
    N       -0.00000        0.00000       -0.05873
    H        0.94626       -0.00000        0.27214
    H       -0.47313        0.81948        0.27214
    H       -0.47313       -0.81948        0.27214
     4 
Profile.  44 HEAT OF FORMATION =    -4.189 KCAL
    N       -0.00000        0.00000       -0.05459
    H        0.95080       -0.00000        0.25298
    H       -0.47540        0.82341        0.25299
    H       -0.47540       -0.82341        0.25299
     4 
Profile.  45 HEAT OF FORMATION =    -4.044 KCAL
    N       -0.00000        0.00000       -0.05047
    H        0.95487       -0.00000        0.23387
    H       -0.47743        0.82694        0.23387
    H       -0.47743       -0.82694        0.23387
     4 
Profile.  46 HEAT OF FORMATION =    -3.804 KCAL
    N       -0.00000        0.00000       -0.04639
    H        0.95846       -0.00000        0.21496
    H       -0.47923        0.83005        0.21496
    H       -0.47923       -0.83005        0.21496
     4 
Profile.  47 HEAT OF FORMATION =    -3.495 KCAL
    N       -0.00000        0.00000       -0.04239
    H        0.96156       -0.00000        0.19640
    H       -0.48078        0.83274        0.19640
    H       -0.48078       -0.83274        0.19640
     4 
Profile.  48 HEAT OF FORMATION =    -3.145 KCAL
    N       -0.00000        0.00000       -0.03848
    H        0.96419       -0.00000        0.17829
    H       -0.48209        0.83501        0.17829
    H       -0.48209       -0.83501        0.17829
     4 
Profile.  49 HEAT OF FORMATION =    -2.777 KCAL
    N       -0.00000        0.00000       -0.03469
    H        0.96636       -0.00000        0.16071
    H       -0.48318        0.83689        0.16071
    H       -0.48318       -0.83689        0.16071
     4 
Profile.  50 HEAT OF FORMATION =    -2.408 KCAL
    N       -0.00000        0.00000       -0.03102
    H        0.96810       -0.00000        0.14370
    H       -0.48405        0.83840        0.14370
    H       -0.48405       -0.83840        0.14370
     4 
Profile.  51 HEAT OF FORMATION =    -2.056 KCAL
    N       -0.00000        0.00000       -0.02747
    H        0.96946       -0.00000        0.12727
    H       -0.48473        0.83957        0.12728
    H       -0.48473       -0.83957        0.12728
     4 
Profile.  52 HEAT OF FORMATION =    -1.729 KCAL
    N       -0.00000        0.00000       -0.02405
    H        0.97047       -0.00000        0.11143
    H       -0.48524        0.84046        0.11143
    H       -0.48524       -0.84046        0.11143
     4 
Profile.  53 HEAT OF FORMATION =    -1.434 KCAL
    N       -0.00000        0.00000       -0.02076
    H        0.97120       -0.00000        0.09615
    H       -0.48560        0.84109        0.09615
    H       -0.48560       -0.84109        0.09615
     4 
Profile.  54 HEAT OF FORMATION =    -1.177 KCAL
    N       -0.00000        0.00000       -0.01757
    H        0.97170       -0.00000        0.08138
    H       -0.48585        0.84152        0.08138
    H       -0.48585       -0.84152        0.08138
     4 
Profile.  55 HEAT OF FORMATION =    -0.959 KCAL
    N        0.00000        0.00000       -0.01448
    H        0.97201       -0.00000        0.06707
    H       -0.48600        0.84178        0.06707
    H       -0.48600       -0.84178        0.06707
     4 
Profile.  56 HEAT OF FORMATION =    -0.780 KCAL
    N        0.00000        0.00000       -0.01148
    H        0.97218       -0.00000        0.05316
    H       -0.48609        0.84194        0.05316
    H       -0.48609       -0.84194        0.05316
     4 
Profile.  57 HEAT OF FORMATION =    -0.642 KCAL
    N        0.00000        0.00000       -0.00854
    H        0.97227       -0.00000        0.03958
    H       -0.48614        0.84201        0.03958
    H       -0.48614       -0.84201        0.03958
     4 
Profile.  58 HEAT OF FORMATION =    -0.543 KCAL
    N        0.00000        0.00000       -0.00566
    H        0.97231       -0.00000        0.02623
    H       -0.48615        0.84204        0.02623
    H       -0.48615       -0.84204        0.02623
     4 
Profile.  59 HEAT OF FORMATION =    -0.485 KCAL
    N        0.00000        0.00000       -0.00282
    H        0.97231       -0.00000        0.01308
    H       -0.48616        0.84205        0.01308
    H       -0.48616       -0.84205        0.01308
     4 
Profile.  60 HEAT OF FORMATION =    -0.465 KCAL
    N       -0.00000        0.00000        0.00000
    H        0.97231        0.00000        0.00000
    H       -0.48616        0.84205        0.00000
    H       -0.48616       -0.84205       -0.00000
     4 
Profile.  61 HEAT OF FORMATION =    -0.485 KCAL
    N       -0.00000       -0.00000        0.00282
    H        0.97231        0.00000       -0.01308
    H       -0.48616        0.84205       -0.01308
    H       -0.48616       -0.84205       -0.01308
     4 
Profile.  62 HEAT OF FORMATION =    -0.543 KCAL
    N       -0.00000       -0.00000        0.00566
    H        0.97231        0.00000       -0.02623
    H       -0.48615        0.84204       -0.02623
    H       -0.48615       -0.84204       -0.02623
     4 
Profile.  63 HEAT OF FORMATION =    -0.642 KCAL
    N       -0.00000       -0.00000        0.00854
    H        0.97227        0.00000       -0.03958
    H       -0.48614        0.84201       -0.03958
    H       -0.48614       -0.84201       -0.03958
     4 
Profile.  64 HEAT OF FORMATION =    -0.780 KCAL
    N       -0.00000       -0.00000        0.01148
    H        0.97218        0.00000       -0.05316
    H       -0.48609        0.84194       -0.05316
    H       -0.48609       -0.84194       -0.05316
     4 
Profile.  65 HEAT OF FORMATION =    -0.959 KCAL
    N       -0.00000       -0.00000        0.01448
    H        0.97201        0.00000       -0.06707
    H       -0.48600        0.84178       -0.06707
    H       -0.48600       -0.84178       -0.06707
     4 
Profile.  66 HEAT OF FORMATION =    -1.177 KCAL
    N       -0.00000       -0.00000        0.01757
    H        0.97170        0.00000       -0.08138
    H       -0.48585        0.84152       -0.08138
    H       -0.48585       -0.84152       -0.08138
     4 
Profile.  67 HEAT OF FORMATION =    -1.434 KCAL
    N       -0.00000       -0.00000        0.02076
    H        0.97120        0.00000       -0.09615
    H       -0.48560        0.84109       -0.09615
    H       -0.48560       -0.84109       -0.09615
     4 
Profile.  68 HEAT OF FORMATION =    -1.729 KCAL
    N       -0.00000       -0.00000        0.02405
    H        0.97047        0.00000       -0.11143
    H       -0.48524        0.84046       -0.11143
    H       -0.48524       -0.84046       -0.11143
     4 
Profile.  69 HEAT OF FORMATION =    -2.056 KCAL
    N       -0.00000       -0.00000        0.02747
    H        0.96946        0.00000       -0.12728
    H       -0.48473        0.83957       -0.12728
    H       -0.48473       -0.83957       -0.12728
     4 
Profile.  70 HEAT OF FORMATION =    -2.408 KCAL
    N       -0.00000       -0.00000        0.03102
    H        0.96810        0.00000       -0.14370
    H       -0.48405        0.83840       -0.14370
    H       -0.48405       -0.83840       -0.14370
     4 
Profile.  71 HEAT OF FORMATION =    -2.777 KCAL
    N       -0.00000       -0.00000        0.03469
    H        0.96636        0.00000       -0.16071
    H       -0.48318        0.83689       -0.16071
    H       -0.48318       -0.83689       -0.16071
     4 
Profile.  72 HEAT OF FORMATION =    -3.145 KCAL
    N       -0.00000       -0.00000        0.03848
    H        0.96419        0.00000       -0.17829
    H       -0.48209        0.83501       -0.17829
    H       -0.48209       -0.83501       -0.17829
     4 
Profile.  73 HEAT OF FORMATION =    -3.495 KCAL
    N       -0.00000       -0.00000        0.04239
    H        0.96156        0.00000       -0.19640
    H       -0.48078        0.83274       -0.19640
    H       -0.48078       -0.83274       -0.19640
     4 
Profile.  74 HEAT OF FORMATION =    -3.804 KCAL
    N       -0.00000       -0.00000        0.04639
    H        0.95846        0.00000       -0.21496
    H       -0.47923        0.83005       -0.21496
    H       -0.47923       -0.83005       -0.21496
     4 
Profile.  75 HEAT OF FORMATION =    -4.044 KCAL
    N       -0.00000       -0.00000        0.05047
    H        0.95487        0.00000       -0.23387
    H       -0.47744        0.82694       -0.23387
    H       -0.47744       -0.82694       -0.23387
     4 
Profile.  76 HEAT OF FORMATION =    -4.189 KCAL
    N       -0.00000       -0.00000        0.05459
    H        0.95080        0.00000       -0.25298
    H       -0.47540        0.82341       -0.25298
    H       -0.47540       -0.82341       -0.25299
     4 
Profile.  77 HEAT OF FORMATION =    -4.212 KCAL
    N       -0.00000       -0.00000        0.05873
    H        0.94626        0.00000       -0.27214
    H       -0.47313        0.81948       -0.27214
    H       -0.47313       -0.81948       -0.27214
     4 
Profile.  78 HEAT OF FORMATION =    -4.092 KCAL
    N       -0.00000       -0.00000        0.06282
    H        0.94129        0.00000       -0.29115
    H       -0.47065        0.81518       -0.29115
    H       -0.47065       -0.81518       -0.29115
     4 
Profile.  79 HEAT OF FORMATION =    -3.815 KCAL
    N       -0.00000       -0.00000        0.06684
    H        0.93595        0.00000       -0.30976
    H       -0.46797        0.81056       -0.30976
    H       -0.46797       -0.81056       -0.30976
     4 
Profile.  80 HEAT OF FORMATION =    -3.380 KCAL
    N       -0.00000       -0.00000        0.07072
    H        0.93030        0.00000       -0.32775
    H       -0.46515        0.80566       -0.32775
    H       -0.46515       -0.80566       -0.32775
     4 
Profile.  81 HEAT OF FORMATION =    -2.797 KCAL
    N       -0.00000       -0.00000        0.07441
    H        0.92444        0.00000       -0.34485
    H       -0.46222        0.80059       -0.34485
    H       -0.46222       -0.80059       -0.34485
     4 
Profile.  82 HEAT OF FORMATION =    -2.090 KCAL
    N       -0.00000       -0.00000        0.07785
    H        0.91848        0.00000       -0.36081
    H       -0.45924        0.79543       -0.36081
    H       -0.45924       -0.79543       -0.36081
     4 
Profile.  83 HEAT OF FORMATION =    -1.297 KCAL
    N       -0.00000       -0.00000        0.08098
    H        0.91255        0.00000       -0.37536
    H       -0.45628        0.79029       -0.37536
    H       -0.45628       -0.79029       -0.37536
     4 
Profile.  84 HEAT OF FORMATION =    -0.465 KCAL
    N       -0.00000       -0.00000        0.08377
    H        0.90680        0.00000       -0.38829
    H       -0.45340        0.78531       -0.38829
    H       -0.45340       -0.78531       -0.38829
     4 
Profile.  85 HEAT OF FORMATION =     0.354 KCAL
    N       -0.00000       -0.00000        0.08616
    H        0.90137        0.00000       -0.39936
    H       -0.45069        0.78061       -0.39936
    H       -0.45069       -0.78061       -0.39936
     4 
Profile.  86 HEAT OF FORMATION =     1.104 KCAL
    N       -0.00000       -0.00000        0.08811
    H        0.89645        0.00000       -0.40842
    H       -0.44822        0.77634       -0.40842
    H       -0.44822       -0.77634       -0.40842
     4 
Profile.  87 HEAT OF FORMATION =     1.733 KCAL
    N       -0.00000       -0.00000        0.08959
    H        0.89218        0.00000       -0.41530
    H       -0.44609        0.77265       -0.41530
    H       -0.44609       -0.77265       -0.41530
     4 
Profile.  88 HEAT OF FORMATION =     2.196 KCAL
    N       -0.00000       -0.00000        0.09058
    H        0.88873        0.00000       -0.41992
    H       -0.44437        0.76966       -0.41992
    H       -0.44437       -0.76966       -0.41992
     4 
Profile.  89 HEAT OF FORMATION =     2.458 KCAL
    N       -0.00000       -0.00000        0.09107
    H        0.88625        0.00000       -0.42221
    H       -0.44313        0.76752       -0.42221
    H       -0.44313       -0.76752       -0.42221
     4 
Profile.  90 HEAT OF FORMATION =     2.498 KCAL
    N       -0.00000       -0.00000        0.09106
    H        0.88486        0.00000       -0.42214
    H       -0.44243        0.76631       -0.42214
    H       -0.44243       -0.76631       -0.42214
     4 
Profile.  91 HEAT OF FORMATION =     2.312 KCAL
    N       -0.00000       -0.00000        0.09054
    H        0.88466        0.00000       -0.41975
    H       -0.44233        0.76613       -0.41975
    H       -0.44233       -0.76613       -0.41975
     4 
Profile.  92 HEAT OF FORMATION =     1.911 KCAL
    N       -0.00000       -0.00000        0.08953
    H        0.88570        0.00000       -0.41509
    H       -0.44285        0.76704       -0.41509
    H       -0.44285       -0.76704       -0.41509
     4 
Profile.  93 HEAT OF FORMATION =     1.324 KCAL
    N       -0.00000       -0.00000        0.08806
    H        0.88802        0.00000       -0.40827
    H       -0.44401        0.76905       -0.40827
    H       -0.44401       -0.76905       -0.40827
     4 
Profile.  94 HEAT OF FORMATION =     0.591 KCAL
    N       -0.00000       -0.00000        0.08614
    H        0.89158        0.00000       -0.39942
    H       -0.44579        0.77213       -0.39942
    H       -0.44579       -0.77213       -0.39942
     4 
Profile.  95 HEAT OF FORMATION =    -0.233 KCAL
    N       -0.00000       -0.00000        0.08383
    H        0.89629        0.00000       -0.38869
    H       -0.44815        0.77621       -0.38869
    H       -0.44815       -0.77621       -0.38869
     4 
Profile.  96 HEAT OF FORMATION =    -1.090 KCAL
    N       -0.00000       -0.00000        0.08114
    H        0.90205        0.00000       -0.37627
    H       -0.45103        0.78120       -0.37627
    H       -0.45103       -0.78120       -0.37627
     4 
Profile.  97 HEAT OF FORMATION =    -1.921 KCAL
    N       -0.00000       -0.00000        0.07814
    H        0.90868        0.00000       -0.36234
    H       -0.45434        0.78694       -0.36234
    H       -0.45434       -0.78694       -0.36234
     4 
Profile.  98 HEAT OF FORMATION =    -2.669 KCAL
    N       -0.00000       -0.00000        0.07485
    H        0.91598        0.00000       -0.34713
    H       -0.45799        0.79326       -0.34713
    H       -0.45799       -0.79326       -0.34713
     4 
Profile.  99 HEAT OF FORMATION =    -3.289 KCAL
    N       -0.00000       -0.00000        0.07134
    H        0.92371        0.00000       -0.33085
    H       -0.46186        0.79996       -0.33085
    H       -0.46186       -0.79996       -0.33085
     4 
Profile. 100 HEAT OF FORMATION =    -3.752 KCAL
    N       -0.00000       -0.00000        0.06764
    H        0.93163        0.00000       -0.31371
    H       -0.46581        0.80681       -0.31371
    H       -0.46581       -0.80681       -0.31371
     4 
Profile. 101 HEAT OF FORMATION =    -4.042 KCAL
    N       -0.00000       -0.00000        0.06380
    H        0.93947        0.00000       -0.29593
    H       -0.46974        0.81361       -0.29593
    H       -0.46974       -0.81361       -0.29593
     4 
Profile. 102 HEAT OF FORMATION =    -4.162 KCAL
    N       -0.00000       -0.00000        0.05986
    H        0.94699        0.00000       -0.27771
    H       -0.47350        0.82012       -0.27771
    H       -0.47350       -0.82012       -0.27771
     4 
Profile. 103 HEAT OF FORMATION =    -4.130 KCAL
    N       -0.00000       -0.00000        0.05588
    H        0.95395        0.00000       -0.25925
    H       -0.47698        0.82615       -0.25925
    H       -0.47698       -0.82615       -0.25925
     4 
Profile. 104 HEAT OF FORMATION =    -3.971 KCAL
    N       -0.00000       -0.00000        0.05187
    H        0.96015        0.00000       -0.24071
    H       -0.48007        0.83151       -0.24071
    H       -0.48007       -0.83151       -0.24071
     4 
Profile. 105 HEAT OF FORMATION =    -3.720 KCAL
    N       -0.00000       -0.00000        0.04789
    H        0.96540        0.00000       -0.22226
    H       -0.48270        0.83606       -0.22226
    H       -0.48270       -0.83606       -0.22226
     4 
Profile. 106 HEAT OF FORMATION =    -3.412 KCAL
    N       -0.00000       -0.00000        0.04395
    H        0.96960        0.00000       -0.20402
    H       -0.48480        0.83970       -0.20402
    H       -0.48480       -0.83970       -0.20402
     4 
Profile. 107 HEAT OF FORMATION =    -3.077 KCAL
    N       -0.00000       -0.00000        0.04008
    H        0.97268        0.00000       -0.18610
    H       -0.48634        0.84236       -0.18610
    H       -0.48634       -0.84236       -0.18610
     4 
Profile. 108 HEAT OF FORMATION =    -2.740 KCAL
    N        0.00000       -0.00000        0.03630
    H        0.97462        0.00000       -0.16860
    H       -0.48731        0.84404       -0.16860
    H       -0.48731       -0.84404       -0.16860
     4 
Profile. 109 HEAT OF FORMATION =    -2.414 KCAL
    N        0.00000        0.00000        0.03262
    H        0.97547        0.00000       -0.15157
    H       -0.48774        0.84478       -0.15157
    H       -0.48774       -0.84478       -0.15157
     4 
Profile. 110 HEAT OF FORMATION =    -2.108 KCAL
    N        0.00000        0.00000        0.02905
    H        0.97534        0.00000       -0.13506
    H       -0.48767        0.84467       -0.13506
    H       -0.48767       -0.84467       -0.13506
     4 
Profile. 111 HEAT OF FORMATION =    -1.823 KCAL
    N        0.00000        0.00000        0.02560
    H        0.97438        0.00000       -0.11909
    H       -0.48719        0.84384       -0.11909
    H       -0.48719       -0.84384       -0.11909
     4 
Profile. 112 HEAT OF FORMATION =    -1.556 KCAL
    N        0.00000        0.00000        0.02227
    H        0.97279        0.00000       -0.10366
    H       -0.48640        0.84246       -0.10366
    H       -0.48640       -0.84246       -0.10366
     4 
Profile. 113 HEAT OF FORMATION =    -1.304 KCAL
    N        0.00000        0.00000        0.01905
    H        0.97080        0.00000       -0.08875
    H       -0.48540        0.84074       -0.08875
    H       -0.48540       -0.84074       -0.08875
     4 
Profile. 114 HEAT OF FORMATION =    -1.068 KCAL
    N        0.00000        0.00000        0.01594
    H        0.96865        0.00000       -0.07434
    H       -0.48432        0.83887       -0.07434
    H       -0.48432       -0.83887       -0.07434
     4 
Profile. 115 HEAT OF FORMATION =    -0.852 KCAL
    N        0.00000        0.00000        0.01292
    H        0.96658        0.00000       -0.06037
    H       -0.48329        0.83708       -0.06037
    H       -0.48329       -0.83708       -0.06037
     4 
Profile. 116 HEAT OF FORMATION =    -0.665 KCAL
    N        0.00000        0.00000        0.00998
    H        0.96480       -0.00000       -0.04679
    H       -0.48240        0.83554       -0.04679
    H       -0.48240       -0.83554       -0.04679
     4 
Profile. 117 HEAT OF FORMATION =    -0.518 KCAL
    N        0.00000        0.00000        0.00711
    H        0.96352       -0.00000       -0.03352
    H       -0.48176        0.83443       -0.03352
    H       -0.48176       -0.83443       -0.03352
     4 
Profile. 118 HEAT OF FORMATION =    -0.419 KCAL
    N        0.00000        0.00000        0.00429
    H        0.96287       -0.00000       -0.02047
    H       -0.48143        0.83387       -0.02047
    H       -0.48143       -0.83387       -0.02047
     4 
Profile. 119 HEAT OF FORMATION =    -0.376 KCAL
    N        0.00000        0.00000        0.00151
    H        0.96291       -0.00000       -0.00757
    H       -0.48146        0.83391       -0.00757
    H       -0.48146       -0.83391       -0.00757
