71
SCAT f01 file
Au    0.000000    0.000000    0.000000
Si    2.740700    2.740700    0.002700
Si    2.740700   -2.740700   -0.002700
Si   -2.740700    2.740700   -0.002700
Si   -2.740700   -2.740700    0.002700
Si    0.002700    2.740700    2.740700
Si   -0.002700    2.740700   -2.740700
Si   -0.002700   -2.740700    2.740700
Si    0.002700   -2.740700   -2.740700
Si    2.740700    0.002700    2.740700
Si    2.740700   -0.002700   -2.740700
Si   -2.740700    0.002700   -2.740700
Si   -2.740700   -0.002700    2.740700
Si    5.473600    0.000000    0.000000
Si   -5.473600    0.000000    0.000000
Si    0.000000    5.473600    0.000000
Si   -0.000000   -5.473600    0.000000
Si    0.000000    0.000000    5.473600
Si   -0.000000   -0.000000   -5.473600
Si    1.401100    1.401100    1.401100
Si    1.401100   -1.401100   -1.401100
Si   -1.401100    1.401100   -1.401100
Si   -1.401100   -1.401100    1.401100
Si    4.102300   -1.365300    1.365300
Si    4.102300    1.365300   -1.365300
Si   -4.102300   -1.365300   -1.365300
Si   -4.102300    1.365300    1.365300
Si    1.365300    4.102300   -1.365300
Si   -1.365300    4.102300    1.365300
Si   -1.365300   -4.102300   -1.365300
Si    1.365300   -4.102300    1.365300
Si   -1.365300    1.365300    4.102300
Si   -1.365300   -1.365300   -4.102300
Si    1.365300    1.365300   -4.102300
Si    1.365300   -1.365300    4.102300
 H   -6.277100    0.802400   -0.818800
 H   -6.277100   -0.818800    0.802400
 H   -3.551800   -0.797100    3.559800
 H   -3.551800   -3.559800    0.797100
 H   -3.551800    0.797100   -3.559800
 H   -3.551800    3.559800   -0.797100
 H   -0.797100    3.551800   -3.559800
 H    0.818800    6.277100    0.802400
 H   -0.802400    6.277100   -0.818800
 H    0.797100    3.551800    3.559800
 H    3.551800    3.559800    0.797100
 H    3.551800    0.797100    3.559800
 H    6.277100    0.802400    0.818800
 H    6.277100   -0.818800   -0.802400
 H    3.551800   -0.797100   -3.559800
 H    3.551800   -3.559800   -0.797100
 H    0.802400   -0.818800   -6.277100
 H   -0.818800    0.802400   -6.277100
 H    0.802400    0.818800    6.277100
 H   -0.818800   -0.802400    6.277100
 H   -0.797100   -3.551800    3.559800
 H   -0.818800   -6.277100    0.802400
 H    0.802400   -6.277100   -0.818800
 H   -2.178800   -4.910300   -2.168700
 H    2.178800   -4.910300    2.168700
 H   -2.168700   -2.178800   -4.910300
 H   -4.910300   -2.178800   -2.168700
 H    4.910300   -2.178800    2.168700
 H    2.168700   -2.178800    4.910300
 H   -2.168700    2.178800    4.910300
 H   -4.910300    2.178800    2.168700
 H    2.168700    2.178800   -4.910300
 H    4.910300    2.178800   -2.168700
 H    0.797100   -3.551800   -3.559800
 H   -2.178800    4.910300    2.168700
 H    2.178800    4.910300   -2.168700
