137

C         21.53710       16.22566       31.55399
C          2.27170        5.10274       33.90120
C         22.01717       15.17830       30.75625
C          2.93870        4.16331       34.69893
C         21.21660       14.04694       30.54221
C          4.31877        4.29095       34.91297
C         19.91781       13.99908       31.05080
C          5.00962        5.39180       34.40438
C         19.39953       15.08726       31.76704
C          4.32636        6.38473       33.68814
C         20.23126       16.18624       32.04883
C          2.95875        6.21392       33.40635
C         17.96365       15.10885       32.09547
C          5.02560        7.63903       33.35972
C         15.53729       17.62120       33.16861
C          4.06302       10.99650       32.28658
C         15.96941       16.43448       32.56625
C          4.87470       10.02891       32.88893
C         15.01360       15.55510       32.02183
C          6.11416       10.41698       33.43336
C         13.65412       15.86669       32.08369
C          6.52407       11.75011       33.37150
C         13.22228       17.06139       32.68063
C          5.70534       12.72146       32.77455
C         14.17673       17.93560       33.23291
C          4.47103       12.33198       32.22227
C          9.02626       18.06934       32.71255
C          6.93044       16.85929       32.74264
C          7.82608       19.93882       30.74005
C          5.91151       18.83341       34.71513
C          6.98487       19.11154       31.51766
C          7.04857       19.14828       33.93752
C          5.59722       19.16034       31.26337
C          7.70013       20.37442       34.19182
C          5.08247       19.91677       30.21183
C          7.30242       21.19842       35.24336
C          5.93262       20.69103       29.41017
C          6.20682       20.84930       36.04502
C          7.30808       20.69900       29.68753
C          5.51218       19.66210       35.76765
C          4.23963       22.29445       28.47399
C          5.66470       23.11718       36.98119
C          5.38346       21.49485       28.29334
C          5.78526       21.72679       37.16185
C          5.99412       21.45355       27.02825
C          5.51570       21.17731       38.42693
C          5.46961       22.18933       25.96100
C          5.14074       21.99943       39.49418
C          4.32633       22.98893       26.14657
C          5.01991       23.38934       39.30861
C          3.71676       23.02460       27.40528
C          5.29381       23.93508       38.04991
C          4.29057       24.08979       23.96102
C          4.08442       23.97074       41.49416
C          2.29389       26.79923       21.30125
C          2.73632       27.05464       44.15393
C          1.58732       26.19953       22.35426
C          3.60896       27.36669       43.10092
C          2.22155       25.29059       23.20305
C          4.07901       26.36297       42.25214
C          3.57615       24.96494       23.01208
C          3.68373       25.02702       42.44310
C          3.63901       26.45245       21.09163
C          2.36408       25.71634       44.36356
C          4.27079       25.53366       21.93404
C          2.84388       24.70981       43.52115
C          9.64721       17.56724       31.54810
C          7.05480       16.07048       33.90709
C         11.00723       17.25660       31.53435
C          6.64381       14.73735       33.92083
C         11.78179       17.39972       32.69487
C          6.13258       14.13812       32.76031
C         11.16490       17.83377       33.87503
C          6.06513       14.88938       31.58015
C          9.80488       18.14441       33.89074
C          6.47611       16.22252       31.56444
C          7.49734       18.29739       32.72762
N         17.38199       16.22519       32.41652
N          4.34966        8.70094       33.03866
N          3.74087       23.77211       25.09454
N          4.63439       24.28795       40.36064
F         13.80177       19.11904       33.78126
F          3.63361       13.24842       31.67392
F          5.87139       23.68295       35.76456
F          3.64635       22.39829       29.69063
H         22.14504       17.10597       31.72581
H          1.20535        5.01640       33.72937
H         21.57801       13.22857       29.93103
H          4.84680        3.56877       35.52416
H         19.29550       13.14176       30.82498
H          6.06323        5.50207       34.63020
H         19.85766       17.03511       32.60798
H          2.41041        6.96190       32.84721
H         17.39174       14.20086       31.95997
H          6.09791        7.68032       33.49521
H         16.26363       18.31897       33.56673
H          3.09556       10.71636       31.88845
H         15.30213       14.64899       31.50981
H          6.75462        9.71405       33.94538
H         12.93808       15.17642       31.65414
H          7.47987       12.02509       33.80105
H          8.88159       20.02704       30.95360
H          5.30736       17.96343       34.50158
H          4.90745       18.59349       31.87603
H          8.53592       20.68835       33.57916
H          4.01721       19.88861       30.01988
H          7.85943       22.10689       35.43530
H          7.97996       21.31841       29.10580
H          4.63981       19.38994       36.34938
H          6.86594       20.83227       26.86036
H          5.61783       20.11164       38.59483
H          5.95131       22.10769       24.99734
H          4.97061       21.54144       40.45784
H          2.83735       23.63837       27.56040
H          5.20197       25.00355       37.89478
H          5.30706       23.79792       23.73324
H          3.82895       22.94450       41.72195
H          0.54970       26.45386       22.53295
H          3.90751       28.39247       42.92223
H          1.65722       24.86123       24.02140
H          4.73301       26.63701       41.43378
H          4.21119       26.92358       20.30273
H          1.66998       25.45638       45.15245
H          5.31627       25.30045       21.76958
H          2.52311       23.68778       43.68560
H          9.07313       17.41380       30.64285
H          7.47472       16.49093       34.81233
H         11.45614       16.90419       30.61340
H          6.72455       14.17237       34.84179
H         11.72950       17.89853       34.79746
H          5.72675       14.43280       30.65773
H          9.36491       18.40719       34.84262
H          6.46853       16.73494       30.61256
H         22.95447       15.23920       30.32873
H          2.41731        3.38203       35.12645
H          1.83074       27.48749       20.68740
H          2.37185       27.79987       44.76779
