172

C          0.59494       30.02062       19.03666
C          0.79597       32.42974       19.03666
C         -1.39091       31.39927       19.03666
C          1.11159       28.92492       18.34447
C          1.48654       33.42501       18.34447
C         -2.59813       31.49969       18.34447
C          1.63121       27.83251       19.06808
C          2.17278       34.42122       19.06808
C         -3.80399       31.59588       19.06808
C          3.28328       26.76450       17.53741
C          2.27167       36.38597       17.53741
C         -5.55495       30.69915       17.53741
C          2.13621       26.65658       18.33515
C          2.93868       35.44653       18.33515
C         -5.07488       31.74651       18.33515
C          1.55671       25.39758       18.54919
C          4.31874       35.57417       18.54919
C         -5.87545       32.87787       18.54919
C          2.16466       24.24886       18.04060
C          5.00959       36.67502       18.04060
C         -7.17425       32.92573       18.04060
C          3.36619       24.34412       17.32435
C          4.32633       37.66795       17.32435
C         -7.69252       31.83754       17.32435
C          3.90207       25.61390       17.04257
C          2.95872       37.49715       17.04257
C         -6.86079       30.73857       17.04257
C          4.10282       23.11141       16.99593
C          5.02558       38.92225       16.99593
C         -9.12839       31.81596       16.99593
C          7.49176       22.26629       15.92280
C          4.06299       42.27972       15.92280
C        -11.55476       29.30360       15.92280
C          6.24797       22.04715       16.52515
C          4.87467       41.31213       16.52515
C        -11.12264       30.49033       16.52515
C          5.96432       20.77971       17.06957
C          6.11413       41.70020       17.06957
C        -12.07845       31.36971       17.06957
C          6.91389       19.75816       17.00772
C          6.52404       43.03333       17.00772
C        -13.43793       31.05812       17.00772
C          8.16446       19.98152       16.41077
C          5.70531       44.00468       16.41077
C        -13.86978       29.86342       16.41077
C          8.44432       21.24521       15.85849
C          4.47100       43.61520       15.85849
C        -12.91532       28.98921       15.85849
C          4.23963       22.29445       28.47399
C          5.66468       39.44922       28.47399
C         -9.90431       32.10595       28.47399
C          5.38346       21.49485       28.29334
C          5.78524       40.83960       28.29334
C        -11.16870       31.51517       28.29334
C          5.99412       21.45355       27.02825
C          5.51567       41.38909       27.02825
C        -11.50979       31.00698       27.02825
C          5.46961       22.18933       25.96100
C          5.14072       40.56697       25.96100
C        -10.61033       31.09332       25.96100
C          4.32633       22.98893       26.14657
C          5.01988       39.17706       26.14657
C         -9.34622       31.68363       26.14657
C          3.71676       23.02460       27.40528
C          5.29378       38.63132       27.40528
C         -9.01055       32.19370       27.40528
C          4.29057       24.08979       23.96102
C          4.08440       38.59565       23.96102
C         -8.37497       31.16417       23.96102
C          2.29389       26.79923       21.30125
C          2.73630       35.51176       21.30125
C         -5.03018       31.53863       21.30125
C          1.65451       27.86442       20.49271
C          2.13350       34.42545       20.49271
C         -3.78801       31.55975       20.49271
C          1.11484       28.96621       21.17410
C          1.44915       33.40718       21.17410
C         -2.56399       31.47622       21.17410
C          0.59088       30.02953       20.45477
C          0.79028       32.42176       20.45477
C         -1.38115       31.39833       20.45477
C          1.58732       26.19953       22.35426
C          3.60893       35.19971       22.35426
C         -5.19626       32.45038       22.35426
C          2.22155       25.29059       23.20305
C          4.07898       36.20343       23.20305
C         -6.30053       32.35560       23.20305
C          3.57615       24.96494       23.01208
C          3.68370       37.53938       23.01208
C         -7.25986       31.34530       23.01208
C          3.63901       26.45245       21.09163
C          2.36405       36.85005       21.09163
C         -6.00306       30.54711       21.09163
C          4.27079       25.53366       21.93404
C          2.84385       37.85659       21.93404
C         -7.11464       30.45936       21.93404
C         -0.00003       31.28322       18.40549
C         -0.00003       31.28322       21.07705
N          5.36043       23.16584       16.67488
N          4.34963       39.98416       16.67488
N         -9.71006       30.69962       16.67488
N          3.74087       23.77211       25.09454
N          4.63437       38.27844       25.09454
N         -8.37524       31.79906       25.09454
F          9.65669       21.51221       15.31014
F          3.63359       44.53164       15.31014
F        -13.29028       27.80577       15.31014
F         -9.51768       32.56783       29.69063
F          3.64635       22.39829       29.69063
F          5.87142       38.88345       29.69063
H          1.09912       28.91460       17.26152
H          1.50171       33.41938       17.26152
H         -2.60084       31.51564       17.26152
H          3.74169       27.73115       17.36559
H          1.20532       36.29962       17.36559
H         -4.94701       29.81884       17.36559
H          0.66728       25.30139       19.16037
H          4.84677       34.85199       19.16037
H         -5.51405       33.69624       19.16037
H          1.73335       23.28128       18.26642
H          6.06320       36.78529       18.26642
H         -7.79655       33.78305       18.26642
H          4.82401       25.71479       16.48342
H          2.41038       38.24513       16.48342
H         -7.23439       29.88969       16.48342
H          3.60243       22.16212       17.13143
H          6.09788       38.96355       17.13143
H         -9.70031       32.72395       17.13143
H          7.73288       23.24420       15.52467
H          3.09554       41.99958       15.52467
H        -10.82842       28.60583       15.52467
H          5.03533       20.57653       17.58159
H          6.75459       40.99726       17.58159
H        -11.78992       32.27582       17.58159
H          6.67413       18.79292       17.43727
H          7.47984       43.30832       17.43727
H        -14.15397       31.74839       17.43727
H          6.86594       20.83227       26.86036
H          5.61781       42.45475       26.86036
H        -12.48375       30.56260       26.86036
H          5.95131       22.10769       24.99734
H          4.97058       41.02495       24.99734
H        -10.92189       30.71698       24.99734
H          2.83735       23.63837       27.56040
H          5.20194       37.56284       27.56040
H         -8.03930       32.64841       27.56040
H          5.30706       23.79792       23.73324
H          3.82892       39.62190       23.73324
H         -9.13598       30.42980       23.73324
H          1.13082       29.01079       22.25657
H          1.40256       33.39873       22.25657
H         -2.53338       31.44009       22.25657
H          0.54970       26.45386       22.53295
H          3.90749       34.17393       22.53295
H         -4.45718       33.22183       22.53295
H          1.65722       24.86123       24.02140
H          4.73298       35.92939       24.02140
H         -6.39020       33.05899       24.02140
H          4.21119       26.92358       20.30273
H          1.66995       37.11002       20.30273
H         -5.88114       29.81602       20.30273
H          5.31627       25.30045       21.76958
H          2.52308       38.87861       21.76958
H         -7.83936       29.67056       21.76958
H         -0.00003       31.28322       17.29407
H         -0.00003       31.28322       22.18897
H          8.86958       19.22872       16.37732
H          6.00470       44.99173       16.37732
H        -14.87428       29.62916       16.37732
H          5.76830       20.94671       29.07849
H          6.06752       41.44695       29.07849
H        -11.83582       31.45596       29.07849
