80

C          0.59494       30.02062       19.03666
C          0.79597       32.42974       19.03666
C         -1.39091       31.39927       19.03666
C          1.11159       28.92492       18.34447
C          1.48654       33.42501       18.34447
C         -2.59813       31.49969       18.34447
C          1.63121       27.83251       19.06808
C          2.17278       34.42122       19.06808
C         -3.80399       31.59588       19.06808
C         -5.55495       30.69915       17.53741
C         -5.07488       31.74651       18.33515
C         -5.87545       32.87787       18.54919
C         -7.17425       32.92573       18.04060
C         -7.69252       31.83754       17.32435
C         -6.86079       30.73857       17.04257
C         -9.12839       31.81596       16.99593
C        -11.55476       29.30360       15.92280
C        -11.12264       30.49033       16.52515
C        -12.07845       31.36971       17.06957
C        -13.43793       31.05812       17.00772
C        -13.86978       29.86342       16.41077
C        -12.91532       28.98921       15.85849
C         -9.90431       32.10595       28.47399
C        -11.16870       31.51517       28.29334
C        -11.50979       31.00698       27.02825
C        -10.61033       31.09332       25.96100
C         -9.34622       31.68363       26.14657
C         -9.01055       32.19370       27.40528
C         -8.37497       31.16417       23.96102
C         -5.03018       31.53863       21.30125
C          1.65451       27.86442       20.49271
C          2.13350       34.42545       20.49271
C         -3.78801       31.55975       20.49271
C          1.11484       28.96621       21.17410
C          1.44915       33.40718       21.17410
C         -2.56399       31.47622       21.17410
C          0.59088       30.02953       20.45477
C          0.79028       32.42176       20.45477
C         -1.38115       31.39833       20.45477
C         -5.19626       32.45038       22.35426
C         -6.30053       32.35560       23.20305
C         -7.25986       31.34530       23.01208
C         -6.00306       30.54711       21.09163
C         -7.11464       30.45936       21.93404
C         -0.00003       31.28322       18.40549
C         -0.00003       31.28322       21.07705
N         -9.71006       30.69962       16.67488
N         -8.37524       31.79906       25.09454
F        -13.29028       27.80577       15.31014
F         -9.51768       32.56783       29.69063
H          1.09912       28.91460       17.26152
H          1.50171       33.41938       17.26152
H         -2.60084       31.51564       17.26152
H         -4.94701       29.81884       17.36559
H         -5.51405       33.69624       19.16037
H         -7.79655       33.78305       18.26642
H         -7.23439       29.88969       16.48342
H         -9.70031       32.72395       17.13143
H        -10.82842       28.60583       15.52467
H        -11.78992       32.27582       17.58159
H        -14.15397       31.74839       17.43727
H        -12.48375       30.56260       26.86036
H        -10.92189       30.71698       24.99734
H         -8.03930       32.64841       27.56040
H         -9.13598       30.42980       23.73324
H          1.13082       29.01079       22.25657
H          1.40256       33.39873       22.25657
H         -2.53338       31.44009       22.25657
H         -4.45718       33.22183       22.53295
H         -6.39020       33.05899       24.02140
H         -5.88114       29.81602       20.30273
H         -7.83936       29.67056       21.76958
H         -0.00003       31.28322       17.29407
H         -0.00003       31.28322       22.18897
H          1.99543       27.00813       18.56533
H          2.70461       35.14884       18.56533
H        -14.87428       29.62916       16.37732
H        -11.83582       31.45596       29.07849
H          2.06685       27.07994       21.02147
H          2.60671       35.17479       21.02147
