47
EuBDC_ActH_degGS, RM1, https://doi.org/10.1021/acsami.0c15392
Eu -3.999073587 1.727724208 -9.646879374
O -2.274995721 1.206952518 -8.241849329
O -3.265157729 3.546307887 -8.339204647
O -5.826158718 1.254316163 -8.058285334
O -3.666576782 3.390420760 -11.447143518
O -6.094036589 3.014898429 -9.324001579
O -2.617310892 1.490970281 -11.688413266
O -3.918950988 -0.708484874 -10.121615125
O -5.574073754 0.396170900 -11.027930516
O -0.967282793 1.892785074 -6.626363237
O -2.017954463 4.168636016 -6.620058841
O -3.409287143 -4.245740302 -16.306007966
O -5.531953900 -4.673310035 -16.098762305
C -6.628419786 1.946396911 -8.816306742
C -2.565887188 2.784239759 -11.774559738
C -4.695648741 -0.551747331 -11.147428851
C -1.353946747 0.950212860 -7.345217052
C -2.989013741 4.406605380 -7.452331387
C -8.068813610 1.604826093 -8.981708143
C -1.391037287 3.507498750 -12.338583987
C -4.668026757 -1.461994268 -12.304116326
C -0.825128345 -0.443942211 -7.253502576
C -3.707940462 5.707460349 -7.332264104
C -3.696676549 -2.461365329 -12.368314694
C -5.616181417 -1.321517986 -13.315007018
C -3.665760581 -3.315730915 -13.462769907
C -5.587103279 -2.183812386 -14.406815475
C -4.604845361 -3.162971740 -14.477731400
C -4.581093607 -4.062847674 -15.647886656
H -2.959727068 -2.570848372 -11.563017157
H -6.381352673 -0.537511442 -13.255309044
H -2.915571653 -4.111201627 -13.509237001
H -6.333620323 -2.090947723 -15.202405088
H -1.570387157 3.215359282 -6.687085519
H -8.193203299 0.880190390 -9.803756626
H -0.349963442 -0.747460507 -8.199088983
H -1.283312657 4.514489636 -11.908400888
H -0.451317039 2.959924227 -12.172173750
H -4.239187844 5.967622509 -8.262582801
H -4.463843660 5.648455637 -6.532344220
H -1.639351469 -1.160897279 -7.062081775
H -8.481812061 1.144712724 -8.071590847
H -8.673412114 2.490287118 -9.228064947
H -1.516724830 3.626704944 -13.426728994
H -0.082547666 -0.552407991 -6.450614922
H -3.026485659 6.534097387 -7.082427469
H -2.729302873 -3.665118359 -15.946815887