66
Betanin, S. Ghosh et al., J. Chem. Theory Comput. 13 (2017) 4410-4420.: https://doi.org/10.1021/acs.jctc.7b00618
C 0.02032 4.64649 -0.28636
C -0.89804 3.62470 -0.50118
C -0.62897 2.27394 -0.25542
H -1.89730 3.91377 -0.83650
N -1.47610 1.27699 -0.45966
H 0.34386 1.96801 0.13686
C -2.83021 1.44359 -1.03053
C -3.24543 0.02498 -1.45425
C -2.32435 -0.84607 -0.64788
H -3.07473 -0.11847 -2.53389
H -4.31454 -0.16456 -1.27472
C -1.28060 -0.07824 -0.13091
C -2.33116 -2.21589 -0.43347
C -0.24571 -0.64913 0.60783
C -1.30863 -2.82905 0.29965
H -3.11788 -2.86147 -0.82766
C -0.25726 -2.02565 0.83603
H 0.55304 -0.04841 1.04982
C 1.38553 4.42221 0.30750
C -0.34580 5.99504 -0.51707
C 0.57012 7.00753 -0.33607
H -1.36204 6.25623 -0.81199
N 1.86423 6.79591 -0.01850
C 2.41622 5.46403 -0.13766
H 1.80399 3.43497 0.07574
H 1.27407 4.47202 1.40739
H 2.46022 7.60882 -0.18846
C 3.67870 5.25461 0.70446
O 4.40636 4.33318 0.48577
O 3.86489 6.10283 1.71212
H 3.13550 6.73872 1.76181
C 0.24685 8.46397 -0.51680
O -1.03351 8.68931 -0.74519
O 1.10962 9.30035 -0.45730
C -3.75215 2.07475 0.03059
H -2.79092 2.14922 -1.86915
O -4.14424 3.19925 -0.07257
O -4.05748 1.30842 1.07361
H -3.66617 0.42391 1.01116
O 0.67473 -2.62659 1.58744
H 1.32991 -1.99231 1.89918
O -1.45223 -4.14368 0.48600
H -1.16240 9.64512 -0.86220
H 2.70713 5.26657 -1.18615
C -0.37377 -5.02459 0.68815
C -0.92907 -6.43648 0.70233
H 0.11957 -4.81143 1.65201
C 0.24784 -7.39338 0.77192
H -1.46225 -6.59373 -0.25749
C 1.65047 -5.66760 -0.34331
C 1.24536 -7.14636 -0.34436
H 0.77994 -7.20289 1.72854
H 2.24044 -5.47896 0.57674
H 0.74381 -7.36850 -1.31065
O 0.50552 -4.83960 -0.37858
C 2.47570 -5.28130 -1.55810
H 2.76633 -4.21762 -1.47181
O 2.32589 -7.99977 -0.11098
H 3.03234 -7.74000 -0.72222
O -0.27228 -8.69073 0.75019
H 0.47644 -9.29992 0.77863
O -1.76969 -6.59258 1.80058
H -1.89882 -7.54450 1.90789
H 1.83079 -5.38236 -2.45167
O 3.59562 -6.13011 -1.61482
H 4.07471 -5.97996 -2.43550
