162
f-coronene, S. Ghosh et al., J. Chem. Theory Comput. 13 (2017) 4410-4420.: https://doi.org/10.1021/acs.jctc.7b00618
H -20.038319 -1.352917 0.000000
H -20.038319 1.352917 0.000000
C -19.189419 -0.680225 0.000000
C -19.189419 0.680225 0.000000
H -18.191695 -3.164253 0.000000
H -18.191695 3.164253 0.000000
C -17.791594 -1.082569 0.000000
C -17.791594 1.082569 0.000000
C -17.387860 -2.432135 0.000000
C -17.387860 2.432135 0.000000
N -16.962763 0.000000 0.000000
H -16.428010 -5.176553 0.000000
H -16.428010 5.176553 0.000000
C -16.106699 -2.969440 0.000000
C -16.106699 2.969440 0.000000
C -15.729146 -4.350453 0.000000
C -15.729146 4.350453 0.000000
N -14.929460 -2.248691 0.000000
N -14.929460 2.248691 0.000000
H -14.862992 -1.226332 0.000000
H -14.862992 1.226332 0.000000
C -14.352686 -4.420109 0.000000
C -14.352686 4.420109 0.000000
C -13.852968 -3.082130 0.000000
C -13.852968 3.082130 0.000000
H -13.744376 -5.313439 0.000000
H -13.744376 5.313439 0.000000
N -13.218818 0.000000 0.000000
C -12.522146 -2.538397 0.000000
C -12.522146 2.538397 0.000000
C -12.370824 -1.103497 0.000000
C -12.370824 1.103497 0.000000
H -11.498162 -4.437093 0.000000
H -11.498162 4.437093 0.000000
C -11.348137 -3.360283 0.000000
C -11.348137 3.360283 0.000000
C -11.039710 -0.689835 0.000000
C -11.039710 0.689835 0.000000
C -9.996964 -2.867760 0.000000
C -9.996964 2.867760 0.000000
C -9.895807 -1.442783 0.000000
C -9.895807 1.442783 0.000000
H -8.760192 -4.668254 0.000000
H -8.760192 4.668254 0.000000
C -8.753312 -3.579810 0.000000
C -8.753312 3.579810 0.000000
C -8.686271 -0.721869 0.000000
C -8.686271 0.721869 0.000000
C -7.496354 -1.453113 0.000000
C -7.496354 1.453113 0.000000
C -7.494663 -2.910657 0.000000
C -7.494663 2.910657 0.000000
C -6.303464 -0.720183 0.000000
C -6.303464 0.720183 0.000000
C -6.210110 -3.576342 0.000000
C -6.210110 3.576342 0.000000
H -6.200629 -4.664821 0.000000
H -6.200629 4.664821 0.000000
C -5.093311 -1.436615 0.000000
C -5.093311 1.436615 0.000000
C -4.989088 -2.863674 0.000000
C -4.989088 2.863674 0.000000
C -3.946850 -0.691050 0.000000
C -3.946850 0.691050 0.000000
C -3.623638 -3.352209 0.000000
C -3.623638 3.352209 0.000000
H -3.480737 -4.429481 0.000000
H -3.480737 4.429481 0.000000
C -2.607883 -1.106620 0.000000
C -2.607883 1.106620 0.000000
C -2.450862 -2.548797 0.000000
C -2.450862 2.548797 0.000000
N -1.768737 0.000000 0.000000
H -1.340950 -5.354529 0.000000
H -1.340950 5.354529 0.000000
C -1.129827 -3.146376 0.000000
C -1.129827 3.146376 0.000000
C -0.700224 -4.483587 0.000000
C -0.700224 4.483587 0.000000
N 0.000000 -2.364790 0.000000
H 0.000000 -1.341338 0.000000
H 0.000000 1.341338 0.000000
N 0.000000 2.364790 0.000000
C 0.700224 -4.483587 0.000000
C 0.700224 4.483587 0.000000
C 1.129827 -3.146376 0.000000
C 1.129827 3.146376 0.000000
H 1.340950 -5.354529 0.000000
H 1.340950 5.354529 0.000000
N 1.768737 0.000000 0.000000
C 2.450862 -2.548797 0.000000
C 2.450862 2.548797 0.000000
C 2.607883 -1.106620 0.000000
C 2.607883 1.106620 0.000000
H 3.480737 -4.429481 0.000000
H 3.480737 4.429481 0.000000
C 3.623638 -3.352209 0.000000
C 3.623638 3.352209 0.000000
C 3.946850 -0.691050 0.000000
C 3.946850 0.691050 0.000000
C 4.989088 -2.863674 0.000000
C 4.989088 2.863674 0.000000
C 5.093311 -1.436615 0.000000
C 5.093311 1.436615 0.000000
H 6.200629 -4.664821 0.000000
H 6.200629 4.664821 0.000000
C 6.210110 -3.576342 0.000000
C 6.210110 3.576342 0.000000
C 6.303464 -0.720183 0.000000
C 6.303464 0.720183 0.000000
C 7.494663 -2.910657 0.000000
C 7.494663 2.910657 0.000000
C 7.496354 -1.453113 0.000000
C 7.496354 1.453113 0.000000
C 8.686271 -0.721869 0.000000
C 8.686271 0.721869 0.000000
C 8.753312 -3.579810 0.000000
C 8.753312 3.579810 0.000000
H 8.760192 -4.668254 0.000000
H 8.760192 4.668254 0.000000
C 9.895807 -1.442783 0.000000
C 9.895807 1.442783 0.000000
C 9.996964 -2.867760 0.000000
C 9.996964 2.867760 0.000000
C 11.039710 -0.689835 0.000000
C 11.039710 0.689835 0.000000
C 11.348137 -3.360283 0.000000
C 11.348137 3.360283 0.000000
H 11.498162 -4.437093 0.000000
H 11.498162 4.437093 0.000000
C 12.370824 -1.103497 0.000000
C 12.370824 1.103497 0.000000
C 12.522146 -2.538397 0.000000
C 12.522146 2.538397 0.000000
N 13.218818 0.000000 0.000000
H 13.744376 -5.313439 0.000000
H 13.744376 5.313439 0.000000
C 13.852968 -3.082130 0.000000
C 13.852968 3.082130 0.000000
C 14.352686 -4.420109 0.000000
C 14.352686 4.420109 0.000000
H 14.862992 -1.226332 0.000000
H 14.862992 1.226332 0.000000
N 14.929460 -2.248691 0.000000
N 14.929460 2.248691 0.000000
C 15.729146 -4.350453 0.000000
C 15.729146 4.350453 0.000000
C 16.106699 -2.969440 0.000000
C 16.106699 2.969440 0.000000
H 16.428010 -5.176553 0.000000
H 16.428010 5.176553 0.000000
N 16.962763 0.000000 0.000000
C 17.387860 -2.432135 0.000000
C 17.387860 2.432135 0.000000
C 17.791594 -1.082569 0.000000
C 17.791594 1.082569 0.000000
H 18.191695 -3.164253 0.000000
H 18.191695 3.164253 0.000000
C 19.189419 -0.680225 0.000000
C 19.189419 0.680225 0.000000
H 20.038319 -1.352917 0.000000
H 20.038319 1.352917 0.000000
