31
Pyridine-Ag20 V-complex,  BP86 and TZP, Zhao et al., J. Am. Chem. Soc. 128 (2006) 2911-2919.; https://doi.org/10.1021/ja0556326
Ag -0.048250 -0.001215 0.000000
Ag -2.423671 1.745233 0.000000
Ag -2.433264 -0.867344 1.505242
Ag -2.433264 -0.867344 -1.505242
Ag -4.861393 -1.828938 0.000000
Ag -4.854911 0.914928 1.583415
Ag -4.854911 0.914928 -1.583415
Ag -4.794041 3.432503 0.000000
Ag -4.807913 -1.721352 2.961596
Ag -4.807913 -1.721352 -2.961596
Ag -7.429893 0.002381 0.000000
Ag -7.357001 2.553287 -1.541291
Ag -7.357001 2.553287 1.541291
Ag -7.361911 0.056493 -2.980492
Ag -7.361911 0.056493 2.980492
Ag -7.371939 -2.610113 -1.435975
Ag -7.371939 -2.610113 1.435975
Ag -7.261139 5.019747 0.000000
Ag -7.279851 -2.520404 -4.335685
Ag -7.279851 -2.520404 4.335685
N 2.409904 0.021820 0.000000
C 5.213180 0.030231 0.000000
C 4.501386 0.028195 -1.200636
C 4.501386 0.028195 1.200636
C 3.106293 0.024125 -1.154119
C 3.106293 0.024125 1.154119
H 2.516999 0.022523 -2.072385
H 2.516999 0.022523 2.072385
H 5.011363 0.029171 -2.164582
H 5.011363 0.029171 2.164582
H 6.304939 0.033380 0.000000