24
Tyrosine, S. Ghosh et al., J. Chem. Theory Comput. 13 (2017) 4410-4420.: https://doi.org/10.1021/acs.jctc.7b00618
N 1.724584 -1.440523 -0.791470
C 1.824512 -0.037361 -0.355042
C 3.259702 0.294835 -0.013386
O 3.583626 1.290875 0.577955
C 0.889091 0.362941 0.788071
C -0.576035 0.216350 0.452002
C -1.329145 -0.850508 0.943019
C -1.214609 1.203165 -0.294536
C -2.688568 -0.954404 0.629841
C -2.561959 1.110501 -0.605952
C -3.289305 0.020305 -0.133063
O -4.617873 -0.022206 -0.462560
O 4.154053 -0.599910 -0.459190
H 1.524665 -2.048639 -0.005219
H 1.589084 0.580097 -1.226926
H 1.132559 -0.248113 1.661956
H 1.120984 1.391231 1.061851
H -0.865029 -1.604425 1.565488
H -0.649639 2.059445 -0.642109
H -3.270668 -1.787254 1.007032
H -3.066417 1.870186 -1.185513
H -5.022940 -0.802264 -0.070977
H 3.620923 -1.306270 -0.883772
H 0.973830 -1.565343 -1.456870