80

C          0.59473       29.99472       19.00755
C          0.79640       32.40422       19.00755
C         -1.39112       31.37412       19.00755
C          1.11068       28.89851       18.31568
C          1.48776       33.39915       18.31568
C         -2.59844       31.47539       18.31568
C          1.63015       27.80652       19.03849
C          2.17372       34.39502       19.03849
C         -3.80387       31.57151       19.03849
C         -5.55719       30.68301       17.50596
C         -5.07480       31.72671       18.30586
C         -5.87256       32.85902       18.52339
C         -7.17245       32.91341       18.01860
C         -7.69599       31.82470       17.29972
C         -6.86386       30.72662       17.01345
C         -9.13232       31.79469       16.96729
C        -11.55075       29.26094       15.92826
C        -11.12223       30.45608       16.51701
C        -12.08132       31.33895       17.05028
C        -13.43915       31.02388       16.99086
C        -13.86766       29.82124       16.40702
C        -12.90993       28.94259       15.86639
C         -9.87295       32.06195       28.46345
C        -11.14362       31.48337       28.28766
C        -11.49634       30.98590       27.02127
C        -10.60249       31.07030       25.94934
C         -9.33155       31.64747       26.13053
C         -8.98370       32.14775       27.39004
C         -8.37896       31.13219       23.93462
C         -5.03041       31.50822       21.27172
C          1.65560       27.83935       20.45989
C          2.13257       34.40065       20.45989
C         -3.78817       31.53307       20.45989
C          1.11610       28.94165       21.14455
C          1.44770       33.38227       21.14455
C         -2.56379       31.44914       21.14455
C          0.59093       30.00410       20.42419
C          0.79017       32.39624       20.42419
C         -1.38111       31.37271       20.42419
C         -5.19824       32.41406       22.32843
C         -6.30324       32.31560       23.17449
C         -7.26449       31.30707       22.97955
C         -6.00303       30.51844       21.05665
C         -7.11831       30.42467       21.89485
C         -0.00003       31.25770       18.37623
C         -0.00003       31.25770       21.04796
N         -9.71080       30.67082       16.66727
N         -8.36488       31.75765       25.07333
F        -13.28214       27.75214       15.33116
F         -9.47527       32.51313       29.68088
F         -7.94500       33.99240       18.30552
F         -8.02540       29.43925       21.67550
H          1.09579       28.88773       17.23294
H          1.50455       33.39165       17.23294
H         -2.60034       31.49368       17.23294
H         -4.95109       29.80295       17.33017
H         -5.50549       33.67484       19.13522
H         -7.23769       29.87938       16.45219
H         -9.70891       32.70242       17.07827
H        -10.82202       28.56046       15.53936
H        -11.79465       32.25184       17.55212
H        -14.15758       31.71686       17.41119
H        -12.47519       30.55079       26.85678
H        -10.92354       30.70177       24.98593
H         -8.00810       32.59223       27.54276
H         -9.15208       30.41201       23.70727
H          1.13423       28.98713       22.22630
H          1.39924       33.37524       22.22630
H         -2.53348       31.41069       22.22630
H         -4.45869       33.18488       22.51159
H         -6.39257       33.01702       23.99501
H         -5.87797       29.79170       20.26362
H         -0.00003       31.25770       17.26501
H         -0.00003       31.25770       22.15966
H          1.99278       26.98150       18.53562
H          2.70690       35.12157       18.53563
H        -14.87161       29.58444       16.37460
H        -11.80641       31.42519       29.07655
H          2.06952       27.05508       20.98773
H          2.60481       35.15125       20.98773
