171
XCrySDen XSF file
Ge    0.000000    0.000000    0.000000
Ge    0.000000    0.000000   11.540574
Ge    0.000000   11.540574    0.000000
Ge    0.000000   11.540574   11.540574
Ge   11.540574    0.000000    0.000000
Ge   11.540574    0.000000   11.540574
Ge   11.540574   11.540574    0.000000
Ge   11.540574   11.540574   11.540574
Ge    5.770288    5.770288    0.000000
Ge    5.770288    5.770288   11.540574
Ge    5.770288    0.000000    5.770288
Ge    5.770288   11.540574    5.770288
Ge    0.000000    5.770288    5.770288
Ge   11.540574    5.770288    5.770288
Ge    8.655433    8.655433    5.770357
Ge    8.655433    2.885144    0.000069
Ge    8.655433    2.885144   11.540643
Ge    2.885144    8.655433    0.000069
Ge    2.885144    8.655433   11.540643
Ge    2.885144    2.885144    5.770357
Ge   -0.000066    8.655433    8.655433
Ge   11.540508    8.655433    8.655433
Ge   -0.000066    2.885144    2.885144
Ge   11.540508    2.885144    2.885144
Ge    5.770220    8.655433    2.885144
Ge    5.770220    2.885144    8.655433
Ge    5.770345    8.655433    8.655433
Ge    5.770345    2.885144    2.885144
Ge    0.000057    8.655433    2.885144
Ge   11.540631    8.655433    2.885144
Ge    0.000057    2.885144    8.655433
Ge   11.540631    2.885144    8.655433
Ge    8.655433    8.655433   -0.000054
Ge    8.655433    8.655433   11.540520
Ge    8.655433    2.885144    5.770232
Ge    2.885144    8.655433    5.770232
Ge    2.885144    2.885144   -0.000054
Ge    2.885144    2.885144   11.540520
Ge    8.655433    5.770345    8.655433
Ge    8.655433    0.000057    2.885144
Ge    8.655433   11.540631    2.885144
Ge    2.885144    5.770345    2.885144
Ge    2.885144    0.000057    8.655433
Ge    2.885144   11.540631    8.655433
Ge    8.655433   -0.000054    8.655433
Ge    8.655433   11.540520    8.655433
Ge    8.655433    5.770232    2.885144
Ge    2.885144   -0.000054    2.885144
Ge    2.885144   11.540520    2.885144
Ge    2.885144    5.770232    8.655433
Ge    5.770288    5.770288    5.770288
Ge    5.770288    0.000000    0.000000
Ge    5.770288    0.000000   11.540574
Ge    5.770288   11.540574    0.000000
Ge    5.770288   11.540574   11.540574
Ge    0.000000    5.770288    0.000000
Ge    0.000000    5.770288   11.540574
Ge   11.540574    5.770288    0.000000
Ge   11.540574    5.770288   11.540574
Ge    0.000000    0.000000    5.770288
Ge    0.000000   11.540574    5.770288
Ge   11.540574    0.000000    5.770288
Ge   11.540574   11.540574    5.770288
Ge    1.442543    1.442543    1.442543
Ge    1.442544    7.212831    7.212831
Ge    7.212831    1.442544    7.212831
Ge    7.212831    7.212831    1.442544
Ge    1.442544    4.327745    4.327757
Ge    1.442543   10.098034   10.098045
Ge    7.212831    4.327745   10.098045
Ge    7.212831   10.098033    4.327757
Ge    4.327768    4.327768    1.442532
Ge    4.327768   10.098056    7.212820
Ge   10.098056    4.327768    7.212820
Ge   10.098057   10.098057    1.442531
Ge    4.327745    1.442544    4.327757
Ge    4.327745    7.212831   10.098045
Ge   10.098034    1.442543   10.098045
Ge   10.098033    7.212831    4.327757
Ge    4.327744    4.327744    7.212833
Ge    4.327744   10.098032    1.442544
Ge   10.098032    4.327744    1.442544
Ge   10.098032   10.098032    7.212832
Ge    7.212833    4.327744    4.327755
Ge    7.212832   10.098032   10.098043
Ge    1.442544    4.327744   10.098043
Ge    1.442544   10.098032    4.327755
Ge    7.212833    7.212833    7.212833
Ge    7.212832    1.442544    1.442544
Ge    1.442544    7.212832    1.442544
Ge    1.442544    1.442544    7.212832
Ge    4.327744    7.212833    4.327755
Ge    4.327744    1.442544   10.098043
Ge   10.098032    7.212832   10.098043
Ge   10.098032    1.442544    4.327755
Ge   -1.442517   -1.442517    1.442531
Ge   -1.442540    1.442543   -1.442529
Ge    1.442543   -1.442540   -1.442529
Ge   -1.442517   -1.442517   12.983106
Ge   -1.442540    1.442543   10.098045
Ge    1.442543   -1.442540   10.098045
Ge    1.442543    1.442543   12.983117
Ge   -1.442517   10.098057    1.442531
Ge   -1.442540   12.983117   -1.442529
Ge    1.442543   10.098034   -1.442529
Ge    1.442543   12.983117    1.442543
Ge   -1.442517   10.098057   12.983106
Ge   -1.442540   12.983117   10.098045
Ge    1.442543   12.983117   12.983117
Ge   10.098057   -1.442517    1.442531
Ge   10.098034    1.442543   -1.442529
Ge   12.983117   -1.442540   -1.442529
Ge   12.983117    1.442543    1.442543
Ge   10.098057   -1.442517   12.983106
Ge   12.983117   -1.442540   10.098045
Ge   12.983117    1.442543   12.983117
Ge   10.098034   12.983117   -1.442529
Ge   12.983117   10.098034   -1.442529
Ge   12.983117   12.983117    1.442543
Ge   10.098057   10.098057   12.983106
Ge   10.098034   12.983117   10.098045
Ge   12.983117   10.098034   10.098045
Ge   12.983117   12.983117   12.983117
Ge    4.327745    7.212831   -1.442529
Ge    7.212831    4.327745   -1.442529
Ge    4.327768    4.327768   12.983106
Ge    7.212831    7.212831   12.983118
Ge    4.327768   -1.442518    7.212820
Ge    7.212831   -1.442541    4.327757
Ge    4.327745   12.983118    4.327757
Ge    7.212831   12.983118    7.212831
Ge   -1.442518    4.327768    7.212820
Ge   -1.442541    7.212831    4.327757
Ge   12.983118    4.327745    4.327757
Ge   12.983118    7.212831    7.212831
Ge    7.212832    1.442544   12.983118
Ge   10.098032    4.327744   12.983118
Ge    1.442544    7.212832   12.983118
Ge    4.327744   10.098032   12.983118
Ge   -1.442542    7.212832   10.098043
Ge   -1.442542   10.098032    7.212832
Ge   -1.442542    1.442544    4.327755
Ge   -1.442542    4.327744    1.442544
Ge   12.983118    7.212832    1.442544
Ge   12.983118   10.098032    4.327755
Ge   12.983118    1.442544    7.212832
Ge   12.983118    4.327744   10.098043
Ge    7.212832   10.098032   -1.442531
Ge   10.098032    7.212832   -1.442531
Ge    1.442544    4.327744   -1.442531
Ge    4.327744    1.442544   -1.442531
Ge    7.212832   12.983118    1.442544
Ge   10.098032   12.983118    4.327755
Ge    1.442544   12.983118    7.212832
Ge    4.327744   12.983118   10.098043
Ge    7.212832   -1.442542   10.098043
Ge   10.098032   -1.442542    7.212832
Ge    1.442544   -1.442542    4.327755
Ge    4.327744   -1.442542    1.442544
Ge    7.212832   -1.442542   -1.442531
Ge    4.327744   -1.442542   12.983118
Ge    4.327744   12.983118   -1.442531
Ge    7.212832   12.983118   12.983118
Ge   -1.442542    7.212832   -1.442531
Ge   -1.442542    4.327744   12.983118
Ge   12.983118    4.327744   -1.442531
Ge   12.983118    7.212832   12.983118
Ge   -1.442542   -1.442542    7.212832
Ge   -1.442542   12.983118    4.327755
Ge   12.983118   -1.442542    4.327755
Ge   12.983118   12.983118    7.212832
